L6/1726539/Linhas.dss
! ==========================================================
! LINHAS — geradas de SSDMT
! Barras = PAC_1 / PAC_2 da BDGD (preservados)
! ==========================================================
New Line.245255143 Bus1=node_432576837.3 Bus2=node_432576706.3 LineCode=CND_907_1F Length=349.36 Units=m
New Line.247474641 Bus1=node_443619614.3 Bus2=node_443619383.3 LineCode=CND_907_1F Length=110.21 Units=m
New Line.244464315 Bus1=node_428790687.1.2.3 Bus2=node_428790707.1.2.3 LineCode=CND_19_3F Length=25.19 Units=m
New Line.247152926 Bus1=node_442078694.3 Bus2=node_442079804.3 LineCode=CND_907_1F Length=116.27 Units=m
New Line.244065179 Bus1=node_426661713.1.2.3 Bus2=node_426661758.1.2.3 LineCode=CND_20_3F Length=22.79 Units=m
New Line.247337004 Bus1=node_442892774.1 Bus2=node_442892864.1 LineCode=CND_907_1F Length=282.66 Units=m
New Line.247152804 Bus1=node_442079184.3 Bus2=node_442079194.3 LineCode=CND_902_1F Length=26.45 Units=m
New Line.245081482 Bus1=node_431335705.1.2.3 Bus2=node_431335706.1.2.3 LineCode=CND_11_3F Length=106.02 Units=m
New Line.245081108 Bus1=node_431333772.1.2.3 Bus2=node_428545173.1.2.3 LineCode=CND_11_3F Length=104.88 Units=m
New Line.247337696 Bus1=node_426307807.3 Bus2=node_443042114.3 LineCode=CND_907_1F Length=56.51 Units=m
New Line.247625511 Bus1=node_444464322.1.2.3 Bus2=node_444464323.1.2.3 LineCode=CND_13_3F Length=333.47 Units=m
New Line.247337091 Bus1=node_442893298.2 Bus2=node_442893299.2 LineCode=CND_907_1F Length=94.27 Units=m
New Line.247334614 Bus1=node_442421443.1 Bus2=node_442420883.1 LineCode=CND_907_1F Length=151.04 Units=m
New Line.247471888 Bus1=node_428790376.1.2.3 Bus2=node_428545353.1.2.3 LineCode=CND_19_3F Length=18.20 Units=m
New Line.246033387 Bus1=node_435966721.1.2.3 Bus2=node_435966626.1.2.3 LineCode=CND_51_3F Length=86.17 Units=m
New Line.2708075536 Bus1=node_426110698.2 Bus2=node_2892000527.2 LineCode=CND_913_1F Length=29.72 Units=m
New Line.247335202 Bus1=node_442570379.2 Bus2=node_442570380.2 LineCode=CND_907_1F Length=103.63 Units=m
New Line.244270250 Bus1=node_427476619.1.2.3 Bus2=node_427476553.1.2.3 LineCode=CND_20_3F Length=37.15 Units=m
New Line.245080431 Bus1=node_431137207.1.2.3 Bus2=node_431137213.1.2.3 LineCode=CND_11_3F Length=162.24 Units=m
New Line.244464433 Bus1=node_428791304.2 Bus2=node_428545438.2 LineCode=CND_902_1F Length=65.58 Units=m
New Line.1318468416 Bus1=node_431138527.1 Bus2=node_1615712016.1 LineCode=CND_907_1F Length=62.52 Units=m
New Line.247336908 Bus1=node_442892383.1.2.3 Bus2=node_442892358.1.2.3 LineCode=CND_19_3F Length=3.00 Units=m
New Line.244062888 Bus1=node_426109238.1.2.3 Bus2=node_426109239.1.2.3 LineCode=CND_13_3F Length=394.47 Units=m
New Line.317801751 Bus1=node_502365196.1.2.3 Bus2=node_502365155.1.2.3 LineCode=CND_61_3F Length=31.62 Units=m
New Line.317801543 Bus1=node_502364935.1.2.3 Bus2=node_502364936.1.2.3 LineCode=CND_115_3F Length=17.77 Units=m
New Line.244065460 Bus1=node_426660724.1.2.3 Bus2=node_426663161.1.2.3 LineCode=CND_50_3F Length=31.30 Units=m
New Line.247335459 Bus1=node_442571654.2 Bus2=node_441712688.2 LineCode=CND_907_1F Length=51.42 Units=m
New Line.245255865 Bus1=node_432577486.1.2.3 Bus2=node_432577436.1.2.3 LineCode=CND_4_3F Length=18.63 Units=m
New Line.245428432 Bus1=node_432573373.1 Bus2=node_432573297.1 LineCode=CND_907_1F Length=93.14 Units=m
New Line.245429788 Bus1=node_433270584.1 Bus2=node_433270585.1 LineCode=CND_907_1F Length=156.73 Units=m
New Line.245255609 Bus1=node_428790366.3 Bus2=node_432755991.3 LineCode=CND_907_1F Length=73.07 Units=m
New Line.247334652 Bus1=node_432011647.1 Bus2=node_442421634.1 LineCode=CND_907_1F Length=130.92 Units=m
New Line.2419634690 Bus1=node_2518617238.1 Bus2=node_2518617248.1 LineCode=CND_926_1F Length=97.94 Units=m
New Line.245253717 Bus1=node_428544504.1.2.3 Bus2=node_432394456.1.2.3 LineCode=CND_11_3F Length=382.63 Units=m
New Line.245431744 Bus1=node_433614467.1 Bus2=node_433615317.1 LineCode=CND_907_1F Length=199.99 Units=m
New Line.1468518992 Bus1=node_1770409627.1.2.3 Bus2=node_1770409651.1.2.3 LineCode=CND_11_3F Length=292.18 Units=m
New Line.245081327 Bus1=node_431334162.3 Bus2=node_425679351.3 LineCode=CND_907_1F Length=114.68 Units=m
New Line.247751645 Bus1=node_442251597.1.2.3 Bus2=node_444464861.1.2.3 LineCode=CND_13_3F Length=75.04 Units=m
New Line.245608307 Bus1=node_433781033.1 Bus2=node_433780992.1 LineCode=CND_907_1F Length=55.51 Units=m
New Line.245608255 Bus1=node_433780777.3 Bus2=node_433780617.3 LineCode=CND_907_1F Length=302.26 Units=m
New Line.245251901 Bus1=node_431683010.2 Bus2=node_432011778.2 LineCode=CND_907_1F Length=330.97 Units=m
New Line.245251833 Bus1=node_432011373.2 Bus2=node_431861410.2 LineCode=CND_907_1F Length=127.90 Units=m
New Line.247472073 Bus1=node_442735251.3 Bus2=node_442735050.3 LineCode=CND_907_1F Length=80.89 Units=m
New Line.245080725 Bus1=node_431137733.1 Bus2=node_431138116.1 LineCode=CND_907_1F Length=177.08 Units=m
New Line.416393574 Bus1=node_683703935.1.2.3 Bus2=node_683622189.1.2.3 LineCode=CND_19_3F Length=2.64 Units=m
New Line.245255026 Bus1=node_432576502.2 Bus2=node_432577067.2 LineCode=CND_907_1F Length=137.37 Units=m
New Line.247751381 Bus1=node_444612798.1.2.3 Bus2=node_444612663.1.2.3 LineCode=CND_4_3F Length=31.19 Units=m
New Line.244064035 Bus1=node_426308203.1.2.3 Bus2=node_426308208.1.2.3 LineCode=CND_13_3F Length=439.03 Units=m
New Line.245430824 Bus1=100_350910812.1.2.3 Bus2=node_433456120.1.2.3 LineCode=CND_4_3F Length=1.21 Units=m
New Line.245254747 Bus1=node_432575667.2 Bus2=node_432575668.2 LineCode=CND_907_1F Length=58.23 Units=m
New Line.245611793 Bus1=node_434661636.1.2.3 Bus2=node_434661646.1.2.3 LineCode=CND_30_3F Length=66.99 Units=m
New Line.245430413 Bus1=node_433454008.1 Bus2=node_433454052.1 LineCode=CND_907_1F Length=86.60 Units=m
New Line.245431082 Bus1=node_433456924.3 Bus2=node_433457419.3 LineCode=CND_907_1F Length=383.16 Units=m
New Line.1930479553 Bus1=node_2247754972.1 Bus2=node_2247754940.1 LineCode=CND_907_1F Length=31.66 Units=m
New Line.244064384 Bus1=node_426468830.1.2.3 Bus2=node_426468831.1.2.3 LineCode=CND_50_3F Length=30.89 Units=m
New Line.247472249 Bus1=node_443191207.1.2.3 Bus2=node_443191217.1.2.3 LineCode=CND_19_3F Length=29.08 Units=m
New Line.245253639 Bus1=node_432394060.3 Bus2=node_432394066.3 LineCode=CND_907_1F Length=27.53 Units=m
New Line.245081402 Bus1=node_431335305.2 Bus2=node_431335156.2 LineCode=CND_907_1F Length=118.48 Units=m
New Line.247473855 Bus1=node_426660953.1 Bus2=node_443491067.1 LineCode=CND_907_1F Length=105.63 Units=m
New Line.245429843 Bus1=node_433270795.1.2.3 Bus2=node_433270860.1.2.3 LineCode=CND_20_3F Length=31.83 Units=m
New Line.245081203 Bus1=node_431137603.1.2.3 Bus2=node_431334307.1.2.3 LineCode=CND_11_3F Length=33.82 Units=m
New Line.244464758 Bus1=node_428792837.2 Bus2=node_428792950.2 LineCode=CND_902_1F Length=34.55 Units=m
New Line.702105942 Bus1=node_976894340.1.2.3 Bus2=node_976894304.1.2.3 LineCode=CND_20_3F Length=38.01 Units=m
New Line.317801630 Bus1=node_502365370.1.2.3 Bus2=node_502365371.1.2.3 LineCode=CND_61_3F Length=77.27 Units=m
New Line.245611531 Bus1=node_434660317.1.2.3 Bus2=node_434468074.1.2.3 LineCode=CND_30_3F Length=142.99 Units=m
New Line.244270108 Bus1=node_427287092.1.2.3 Bus2=node_427287093.1.2.3 LineCode=CND_20_3F Length=33.47 Units=m
New Line.247335396 Bus1=node_441712304.3 Bus2=node_441712079.3 LineCode=CND_907_1F Length=97.77 Units=m
New Line.247474726 Bus1=node_443620123.3 Bus2=node_443620124.3 LineCode=CND_907_1F Length=115.36 Units=m
New Line.244464249 Bus1=node_428790376.1.2.3 Bus2=node_428790377.1.2.3 LineCode=CND_19_3F Length=7.77 Units=m
New Line.245428282 Bus1=node_432923621.1.2.3 Bus2=node_432923795.1.2.3 LineCode=CND_88_3F Length=31.96 Units=m
New Line.247752418 Bus1=node_444690847.1.2.3 Bus2=node_444690472.1.2.3 LineCode=CND_4_3F Length=27.17 Units=m
New Line.247474640 Bus1=node_745936684.2 Bus2=node_443619694.2 LineCode=CND_907_1F Length=42.01 Units=m
New Line.1371082926 Bus1=node_1665823531.1.2.3 Bus2=node_1665823549.1.2.3 LineCode=CND_51_3F Length=207.23 Units=m
New Line.244890571 Bus1=node_430965118.3 Bus2=node_430965003.3 LineCode=CND_907_1F Length=164.02 Units=m
New Line.245428694 Bus1=node_432754928.1.2.3 Bus2=node_433093335.1.2.3 LineCode=CND_11_3F Length=122.74 Units=m
New Line.244062745 Bus1=node_426108523.1.2.3 Bus2=node_426108524.1.2.3 LineCode=CND_50_3F Length=5.85 Units=m
New Line.245429869 Bus1=node_433270630.1.2.3 Bus2=node_433270990.1.2.3 LineCode=CND_20_3F Length=37.20 Units=m
New Line.2650512107 Bus1=node_2814226825.1.2.3 Bus2=node_2814226839.1.2.3 LineCode=CND_4_3F Length=26.78 Units=m
New Line.244270772 Bus1=node_427479352.1.2.3 Bus2=node_427479067.1.2.3 LineCode=CND_20_3F Length=43.22 Units=m
New Line.245428736 Bus1=node_426468886.1.2.3 Bus2=node_433093549.1.2.3 LineCode=CND_4_3F Length=34.18 Units=m
New Line.245431188 Bus1=node_433457729.3 Bus2=node_433612533.3 LineCode=CND_907_1F Length=159.83 Units=m
New Line.245082656 Bus1=node_431680809.1 Bus2=node_431680810.1 LineCode=CND_907_1F Length=345.89 Units=m
New Line.246034234 Bus1=node_436147022.1 Bus2=node_436147023.1 LineCode=CND_926_1F Length=107.58 Units=m
New Line.243880944 Bus1=node_425680426.3 Bus2=node_425680427.3 LineCode=CND_909_1F Length=77.19 Units=m
New Line.2224352308 Bus1=node_2530282808.1 Bus2=node_2530282818.1 LineCode=CND_910_1F Length=141.20 Units=m
New Line.245430232 Bus1=node_433272804.1 Bus2=node_433272805.1 LineCode=CND_907_1F Length=96.09 Units=m
New Line.245431823 Bus1=node_433615277.3 Bus2=node_433615712.3 LineCode=CND_907_1F Length=349.72 Units=m
New Line.245428071 Bus1=node_432576013.2 Bus2=node_432922027.2 LineCode=CND_907_1F Length=102.32 Units=m
New Line.244062911 Bus1=node_426109357.1.2.3 Bus2=node_426109358.1.2.3 LineCode=CND_50_3F Length=66.56 Units=m
New Line.247338526 Bus1=node_443046255.1.2.3 Bus2=node_443188172.1.2.3 LineCode=CND_19_3F Length=28.30 Units=m
New Line.245254473 Bus1=node_432574292.1 Bus2=node_432574298.1 LineCode=CND_907_1F Length=109.08 Units=m
New Line.1132740470 Bus1=node_1402258051.1.2.3 Bus2=node_1402258300.1.2.3 LineCode=CND_152_3F Length=2.08 Units=m
New Line.245431958 Bus1=node_433616390.3 Bus2=node_433616391.3 LineCode=CND_907_1F Length=58.28 Units=m
New Line.245825181 Bus1=node_435355067.1.2.3 Bus2=node_435355072.1.2.3 LineCode=CND_51_3F Length=107.50 Units=m
New Line.247752218 Bus1=node_444689974.1.2.3 Bus2=node_444689968.1.2.3 LineCode=CND_13_3F Length=140.39 Units=m
New Line.244270370 Bus1=node_427477304.1.2.3 Bus2=node_427477278.1.2.3 LineCode=CND_20_3F Length=26.80 Units=m
New Line.244062659 Bus1=node_426108093.1 Bus2=node_426108094.1 LineCode=CND_909_1F Length=48.36 Units=m
New Line.245608355 Bus1=node_433781268.3 Bus2=node_433781257.3 LineCode=CND_907_1F Length=90.96 Units=m
New Line.247751334 Bus1=node_444612563.1.2.3 Bus2=node_444612564.1.2.3 LineCode=CND_4_3F Length=32.96 Units=m
New Line.247335768 Bus1=node_426110352.1.2.3 Bus2=node_442573210.1.2.3 LineCode=CND_19_3F Length=5.15 Units=m
New Line.247153945 Bus1=node_442419509.1.2.3 Bus2=node_442419543.1.2.3 LineCode=CND_19_3F Length=24.04 Units=m
New Line.247751991 Bus1=node_444688870.1.2.3 Bus2=node_444688871.1.2.3 LineCode=CND_4_3F Length=41.69 Units=m
New Line.245431734 Bus1=node_433615266.3 Bus2=node_433614551.3 LineCode=CND_907_1F Length=160.33 Units=m
New Line.2546312099 Bus1=node_2780528548.1 Bus2=node_2780528425.1 LineCode=CND_926_1F Length=43.75 Units=m
New Line.244063956 Bus1=node_426307583.1.2.3 Bus2=node_426307527.1.2.3 LineCode=CND_13_3F Length=126.36 Units=m
New Line.247334486 Bus1=node_442420059.1 Bus2=node_442420583.1 LineCode=CND_907_1F Length=115.10 Units=m
New Line.245611516 Bus1=node_434660256.1.2.3 Bus2=node_434660257.1.2.3 LineCode=CND_20_3F Length=28.75 Units=m
New Line.244064201 Bus1=node_426467826.1.2.3 Bus2=node_426467695.1.2.3 LineCode=CND_50_3F Length=21.10 Units=m
New Line.244890444 Bus1=node_430964475.1 Bus2=node_428542845.1 LineCode=CND_907_1F Length=118.75 Units=m
New Line.245080164 Bus1=node_431135868.2 Bus2=node_431135874.2 LineCode=CND_907_1F Length=128.28 Units=m
New Line.247751272 Bus1=node_444612249.1.2.3 Bus2=node_444612244.1.2.3 LineCode=CND_4_3F Length=36.15 Units=m
New Line.244891075 Bus1=node_431134885.3 Bus2=node_431135049.3 LineCode=CND_907_1F Length=151.68 Units=m
New Line.247338541 Bus1=node_443046215.1.2.3 Bus2=node_442733675.1.2.3 LineCode=CND_19_3F Length=23.26 Units=m
New Line.247752130 Bus1=node_444689565.1.2.3 Bus2=node_444689566.1.2.3 LineCode=CND_4_3F Length=16.90 Units=m
New Line.244065260 Bus1=node_426470878.1.2.3 Bus2=node_426662167.1.2.3 LineCode=CND_20_3F Length=27.06 Units=m
New Line.246034450 Bus1=node_436147288.1.2.3 Bus2=node_436148082.1.2.3 LineCode=CND_51_3F Length=91.53 Units=m
New Line.245081813 Bus1=node_431496242.3 Bus2=node_431496243.3 LineCode=CND_907_1F Length=82.16 Units=m
New Line.244690674 Bus1=node_429437375.3 Bus2=node_429437376.3 LineCode=CND_907_1F Length=63.07 Units=m
New Line.247153422 Bus1=node_442249753.1 Bus2=node_442249754.1 LineCode=CND_907_1F Length=31.43 Units=m
New Line.247334999 Bus1=node_442420679.2 Bus2=node_442423369.2 LineCode=CND_907_1F Length=88.37 Units=m
New Line.245431406 Bus1=node_433455296.3 Bus2=node_433455395.3 LineCode=CND_907_1F Length=125.28 Units=m
New Line.1968423481 Bus1=node_2289333917.1.2.3 Bus2=node_2289333944.1.2.3 LineCode=CND_4_3F Length=45.49 Units=m
New Line.247337568 Bus1=node_442895679.3 Bus2=node_442895684.3 LineCode=CND_907_1F Length=129.04 Units=m
New Line.247336634 Bus1=node_442736429.1 Bus2=node_442736430.1 LineCode=CND_907_1F Length=102.72 Units=m
New Line.245254967 Bus1=node_432576771.1.2.3 Bus2=node_432576772.1.2.3 LineCode=CND_20_3F Length=4.43 Units=m
New Line.247337312 Bus1=node_442894403.2 Bus2=node_442894404.2 LineCode=CND_907_1F Length=95.33 Units=m
New Line.245429010 Bus1=node_433093146.3 Bus2=node_433093085.3 LineCode=CND_907_1F Length=101.70 Units=m
New Line.1906072293 Bus1=node_2225065073.2 Bus2=node_2225065055.2 LineCode=CND_907_1F Length=88.58 Units=m
New Line.245430544 Bus1=node_433454708.1 Bus2=node_433454713.1 LineCode=CND_907_1F Length=227.87 Units=m
New Line.247472382 Bus1=node_443191881.2 Bus2=node_443191882.2 LineCode=CND_902_1F Length=38.77 Units=m
New Line.245083727 Bus1=node_431862230.1 Bus2=node_431862231.1 LineCode=CND_907_1F Length=123.18 Units=m
New Line.247335270 Bus1=node_442423084.3 Bus2=node_442570694.3 LineCode=CND_907_1F Length=98.37 Units=m
New Line.1604916930 Bus1=node_1856743479.2 Bus2=node_1856743659.2 LineCode=CND_907_1F Length=1.58 Units=m
New Line.1650450812 Bus1=node_1970844132.3 Bus2=node_1970844143.3 LineCode=CND_910_1F Length=149.33 Units=m
New Line.247152894 Bus1=node_442079589.1 Bus2=node_442078618.1 LineCode=CND_907_1F Length=97.06 Units=m
New Line.245252950 Bus1=node_432200313.1 Bus2=node_432201681.1 LineCode=CND_907_1F Length=61.26 Units=m
New Line.1484891554 Bus1=node_1792879873.1.2.3 Bus2=node_1792879892.1.2.3 LineCode=CND_10_3F Length=36.55 Units=m
New Line.244063207 Bus1=node_425921242.1.2.3 Bus2=node_426304062.1.2.3 LineCode=CND_4_3F Length=36.15 Units=m
New Line.1109380879 Bus1=node_1415100710.1.2.3 Bus2=node_1415100737.1.2.3 LineCode=CND_53_3F Length=2.05 Units=m
New Line.247150115 Bus1=node_430967148.3 Bus2=node_431135349.3 LineCode=CND_907_1F Length=413.13 Units=m
New Line.247153604 Bus1=node_442250494.3 Bus2=node_442250458.3 LineCode=CND_907_1F Length=125.75 Units=m
New Line.245430362 Bus1=node_433273175.3 Bus2=node_433453803.3 LineCode=CND_907_1F Length=95.62 Units=m
New Line.245825275 Bus1=node_435355502.1.2.3 Bus2=node_435355542.1.2.3 LineCode=CND_51_3F Length=65.80 Units=m
New Line.247336931 Bus1=node_442891809.1.2.3 Bus2=node_442891798.1.2.3 LineCode=CND_19_3F Length=30.52 Units=m
New Line.247751464 Bus1=node_444613216.1.2.3 Bus2=node_444613222.1.2.3 LineCode=CND_28_3F Length=4.97 Units=m
New Line.247337819 Bus1=node_442895709.3 Bus2=node_443042935.3 LineCode=CND_907_1F Length=95.30 Units=m
New Line.245083227 Bus1=node_431683668.3 Bus2=node_431683669.3 LineCode=CND_907_1F Length=158.81 Units=m
New Line.247472106 Bus1=node_442737025.1.2.3 Bus2=node_442891813.1.2.3 LineCode=CND_19_3F Length=29.87 Units=m
New Line.243881464 Bus1=node_1920268117.1.2.3 Bus2=node_1920268109.1.2.3 LineCode=CND_20_3F Length=34.57 Units=m
New Line.245608223 Bus1=node_433780617.3 Bus2=node_433616665.3 LineCode=CND_907_1F Length=190.74 Units=m
New Line.244463956 Bus1=node_428544149.1.2.3 Bus2=node_428544150.1.2.3 LineCode=CND_28_3F Length=133.77 Units=m
New Line.247153368 Bus1=node_442249483.3 Bus2=node_442248893.3 LineCode=CND_907_1F Length=360.79 Units=m
New Line.247151658 Bus1=node_441914581.3 Bus2=node_441914582.3 LineCode=CND_907_1F Length=114.46 Units=m
New Line.247150679 Bus1=node_441711780.1 Bus2=node_441712155.1 LineCode=CND_907_1F Length=169.09 Units=m
New Line.247473448 Bus1=node_443489197.3 Bus2=node_443489017.3 LineCode=CND_907_1F Length=86.84 Units=m
New Line.247150787 Bus1=node_441712698.3 Bus2=node_441712643.3 LineCode=CND_907_1F Length=91.44 Units=m
New Line.247751638 Bus1=node_428543821.1.2.3 Bus2=node_444465041.1.2.3 LineCode=CND_28_3F Length=75.18 Units=m
New Line.247334810 Bus1=node_442422393.2 Bus2=node_442422424.2 LineCode=CND_907_1F Length=22.54 Units=m
New Line.247474039 Bus1=node_443491683.1 Bus2=node_443492163.1 LineCode=CND_907_1F Length=151.18 Units=m
New Line.247471995 Bus1=node_432756171.1.2.3 Bus2=node_443189947.1.2.3 LineCode=CND_10_3F Length=25.81 Units=m
New Line.247335154 Bus1=node_442422879.2 Bus2=node_442570084.2 LineCode=CND_907_1F Length=91.35 Units=m
New Line.247473153 Bus1=node_443354618.1.2.3 Bus2=node_443354433.1.2.3 LineCode=CND_19_3F Length=32.65 Units=m
New Line.245080915 Bus1=node_431332822.1 Bus2=node_431332867.1 LineCode=CND_907_1F Length=115.84 Units=m
New Line.245254724 Bus1=node_432394741.2 Bus2=node_432573597.2 LineCode=CND_907_1F Length=79.56 Units=m
New Line.245428902 Bus1=node_433094294.1 Bus2=node_428790651.1 LineCode=CND_907_1F Length=411.18 Units=m
New Line.247473321 Bus1=node_443354259.1.2.3 Bus2=node_443355459.1.2.3 LineCode=CND_11_3F Length=99.54 Units=m
New Line.247475209 Bus1=node_443764180.1.2.3 Bus2=node_443764229.1.2.3 LineCode=CND_11_3F Length=95.91 Units=m
New Line.245429297 Bus1=node_433094184.1 Bus2=node_426470887.1 LineCode=CND_907_1F Length=150.00 Units=m
New Line.247472997 Bus1=node_443353838.1.2.3 Bus2=node_443353839.1.2.3 LineCode=CND_19_3F Length=5.89 Units=m
New Line.247471858 Bus1=node_442737095.1.2.3 Bus2=node_442892418.1.2.3 LineCode=CND_19_3F Length=34.05 Units=m
New Line.247472817 Bus1=node_443190157.2 Bus2=node_443352939.2 LineCode=CND_907_1F Length=92.85 Units=m
New Line.244063116 Bus1=node_426109129.1.2.3 Bus2=node_426110383.1.2.3 LineCode=CND_50_3F Length=9.55 Units=m
New Line.245255961 Bus1=node_432757815.2 Bus2=node_432757816.2 LineCode=CND_907_1F Length=137.22 Units=m
New Line.245826962 Bus1=node_435771922.1.2.3 Bus2=node_435771817.1.2.3 LineCode=CND_51_3F Length=104.27 Units=m
New Line.247336807 Bus1=node_442572160.1.2.3 Bus2=node_442572014.1.2.3 LineCode=CND_19_3F Length=31.71 Units=m
New Line.245827164 Bus1=node_435771029.1.2.3 Bus2=node_435771457.1.2.3 LineCode=CND_51_3F Length=94.12 Units=m
New Line.247336381 Bus1=node_442735160.3 Bus2=node_442735161.3 LineCode=CND_907_1F Length=102.37 Units=m
New Line.245431149 Bus1=node_433457753.3 Bus2=node_433457754.3 LineCode=CND_907_1F Length=88.85 Units=m
New Line.1174310338 Bus1=node_426661403.3 Bus2=node_1430288653.3 LineCode=CND_909_1F Length=3.65 Units=m
New Line.245430357 Bus1=node_433453777.3 Bus2=node_433453778.3 LineCode=CND_907_1F Length=62.87 Units=m
New Line.247153887 Bus1=node_442419548.3 Bus2=node_442251072.3 LineCode=CND_907_1F Length=105.97 Units=m
New Line.245428364 Bus1=node_432757871.2 Bus2=node_432757275.2 LineCode=CND_907_1F Length=105.26 Units=m
New Line.245254542 Bus1=node_432574642.1.2.3 Bus2=node_432574477.1.2.3 LineCode=CND_253_3F Length=44.60 Units=m
New Line.245255907 Bus1=node_432757545.1.2.3 Bus2=node_432757546.1.2.3 LineCode=CND_4_3F Length=41.45 Units=m
New Line.1812502174 Bus1=node_2136068406.1.2.3 Bus2=node_2136068096.1.2.3 LineCode=CND_10_3F Length=41.19 Units=m
New Line.243880910 Bus1=node_425679337.2 Bus2=node_425680257.2 LineCode=CND_909_1F Length=37.31 Units=m
New Line.244270567 Bus1=node_427478327.1.2.3 Bus2=node_427477838.1.2.3 LineCode=CND_20_3F Length=32.76 Units=m
New Line.244063698 Bus1=node_426306522.1.2.3 Bus2=node_426306523.1.2.3 LineCode=CND_4_3F Length=26.39 Units=m
New Line.244890882 Bus1=node_430966184.1 Bus2=node_430966674.1 LineCode=CND_907_1F Length=124.22 Units=m
New Line.1432860714 Bus1=node_1729202697.1.2.3 Bus2=node_1729202705.1.2.3 LineCode=CND_20_3F Length=26.83 Units=m
New Line.958171922 Bus1=node_1220355395.2 Bus2=node_1220356015.2 LineCode=CND_907_1F Length=124.46 Units=m
New Line.1435557208 Bus1=node_1440890870.1.2.3 Bus2=node_1731873369.1.2.3 LineCode=CND_4_3F Length=34.37 Units=m
New Line.247625699 Bus1=node_444465266.1.2.3 Bus2=node_444465251.1.2.3 LineCode=CND_28_3F Length=35.42 Units=m
New Line.247472500 Bus1=node_443191022.1.2.3 Bus2=node_443351350.1.2.3 LineCode=CND_19_3F Length=30.76 Units=m
New Line.245431567 Bus1=node_433612653.1 Bus2=node_433614432.1 LineCode=CND_907_1F Length=81.25 Units=m
New Line.244062747 Bus1=node_426108523.1.2.3 Bus2=node_426108534.1.2.3 LineCode=CND_50_3F Length=22.37 Units=m
New Line.245254655 Bus1=node_432575207.1.2.3 Bus2=node_432575197.1.2.3 LineCode=CND_3_3F Length=32.23 Units=m
New Line.246034178 Bus1=node_436146729.1.2.3 Bus2=node_436146713.1.2.3 LineCode=CND_51_3F Length=257.61 Units=m
New Line.2725072000 Bus1=node_2920475552.1.2.3 Bus2=node_2920475492.1.2.3 LineCode=CND_20_3F Length=36.95 Units=m
New Line.245253377 Bus1=node_432201532.1.2.3 Bus2=node_432203820.1.2.3 LineCode=CND_20_3F Length=13.56 Units=m
...
